<nodes>
    <node id="A" x="0.0" y="0.0" type="priority"/>
    <node id="B" x="500.0" y="0.0" type="priority"/>
    <node id="C" x="1000.0" y="0.0" type="priority"/>
</nodes>
