<configuration>
    <input>
        <net-file value="net.net.xml"/>
        <route-files value="rou.rou.xml"/>
    </input>

    <simulation>
        <step-length value="1.0"/>
        <end value="1000"/>  <!-- Gunakan 'end' untuk durasi simulasi -->
    </simulation>
</configuration>
