<routes>
    <vType id="car" accel="2.6" decel="4.5" sigma="0.5" length="5" maxSpeed="13.9" guiShape="passenger"/>
    <route id="route0" edges="edge1 edge2"/>
    <vehicle id="veh0" type="car" route="route0" depart="0"/>
    <vehicle id="veh1" type="car" route="route0" depart="10"/>
    <vehicle id="veh2" type="car" route="route0" depart="20"/>
</routes>